@<TRIPOS>MOLECULE
Structure 1
      14       13        1 
SMALL
USER


@<TRIPOS>ATOM
       1 H231        -0.611855    -0.437067     0.941917 H               1 UNK         0.00000
       2 H128         2.126681     0.080102     0.483984 H               1 UNK         0.00000
       3 C129         1.517573     0.949135     0.757936 C               1 UNK         0.00000
       4 H131         2.168128     1.829695     0.723903 H               1 UNK         0.00000
       5 C150         0.330411     1.124629    -0.185565 C               1 UNK         0.00000
       6 H153        -0.183904     2.080489    -0.046847 H               1 UNK         0.00000
       7 C172         0.917817     0.984634    -1.610987 C               1 UNK         0.00000
       8 O193         1.715798     1.864055    -1.994776 O               1 UNK         0.00000
       9 O210         0.456975    -0.070115    -2.158959 O               1 UNK        -1.00000
      10 N228        -0.704957     0.030572     0.038220 N               1 UNK         1.00000
      11 H229        -0.481769    -0.626186    -0.749156 H               1 UNK         0.00000
      12 H230        -1.650402     0.365496    -0.148597 H               1 UNK         0.00000
      13 S247         0.971100     0.715534     2.489374 S               1 UNK         0.00000
      14 H248         2.194411     0.790662     3.040231 H               1 UNK         0.00000
@<TRIPOS>BOND
       1        3        5        1 
       2        5        7        1 
       3        7        8        2 
       4        7        9        1 
       5        5       10        1 
       6        3       13        1 
       7       13       14        1 
       8       10       11        1 
       9        5        6        1 
      10        3        4        1 
      11        2        3        1 
      12       10       12        1 
      13        1       10        1 
@<TRIPOS>SUBSTRUCTURE
       1        UNK    1 RESIDUE          0 ****  ****    0 ROOT
