@<TRIPOS>MOLECULE
Structure
   14    13     1     0     0
SMALL
No Charge or Current Charge


@<TRIPOS>ATOM
      1 H231        -0.6120    -0.4370     0.9420 hn         1 UNK       0.000000
      2 H128         2.1270     0.0800     0.4840 h1         1 UNK       0.000000
      3 C129         1.5180     0.9490     0.7580 c3         1 UNK       0.000000
      4 H131         2.1680     1.8300     0.7240 h1         1 UNK       0.000000
      5 C150         0.3300     1.1250    -0.1860 c3         1 UNK       0.000000
      6 H153        -0.1840     2.0800    -0.0470 hx         1 UNK       0.000000
      7 C172         0.9180     0.9850    -1.6110 c          1 UNK       0.000000
      8 O193         1.7160     1.8640    -1.9950 o          1 UNK       0.000000
      9 O210         0.4570    -0.0700    -2.1590 o          1 UNK      -1.000000
     10 N228        -0.7050     0.0310     0.0380 n4         1 UNK       1.000000
     11 H229        -0.4820    -0.6260    -0.7490 hn         1 UNK       0.000000
     12 H230        -1.6500     0.3650    -0.1490 hn         1 UNK       0.000000
     13 S247         0.9710     0.7160     2.4890 sh         1 UNK       0.000000
     14 H248         2.1940     0.7910     3.0400 hs         1 UNK       0.000000
@<TRIPOS>BOND
     1     3     5 1   
     2     5     7 1   
     3     7     8 1   
     4     7     9 1   
     5     5    10 1   
     6     3    13 1   
     7    13    14 1   
     8    10    11 1   
     9     5     6 1   
    10     3     4 1   
    11     2     3 1   
    12    10    12 1   
    13     1    10 1   
@<TRIPOS>SUBSTRUCTURE
     1 UNK         1 TEMP              0 ****  ****    0 ROOT
