@<TRIPOS>MOLECULE 
Structure 1
      13       12        1 
SMALL
USER 


@<TRIPOS>ATOM
       1 H250        -1.623127     0.361398    -1.211294 H               1 UNK         0.00000
       2 C129         0.033913     0.004548     0.061870 C               1 UNK         0.00000
       3 H130         0.567110    -0.020079    -0.895307 H               1 UNK         0.00000
       4 N150        -1.444155    -0.022293    -0.293617 N               1 UNK         0.00000
       5 H151        -1.693731    -1.032881    -0.215630 H               1 UNK         0.00000
       6 H152        -1.875912     0.547870     0.448834 H               1 UNK         0.00000
       7 C170         0.380629     1.310492     0.843132 C               1 UNK         0.00000
       8 O190        -0.675258     1.949661     1.170634 O               1 UNK         0.00000
       9 O204         1.593576     1.608813     0.972065 O               1 UNK         0.00000
      10 C245         0.293260    -1.279954     0.876020 C               1 UNK         0.00000
      11 H246         1.364295    -1.512355     0.843138 H               1 UNK         0.00000
      12 H248         0.056627    -1.100334     1.932356 H               1 UNK         0.00000
      13 S267        -0.761592    -2.686890     0.178692 S               1 UNK         0.00000
@<TRIPOS>BOND
       1        2        3        1 
       2        2        7        1 
       3        7        8        2 
       4        7        9        1 
       5       10       11        1 
       6       10       12        1 
       7        2       10        1 
       8       10       13        1 
       9        2        4        1 
      10        4        6        1 
      11        4        5        1 
      12        1        4        1 
@<TRIPOS>SUBSTRUCTURE
       1        UNK   13 RESIDUE          0 ****  ****    0 ROOT
