@<TRIPOS>MOLECULE 
Structure 1
      26       25        1 
SMALL
USER 


@<TRIPOS>ATOM
       1 Atom         1.133311     1.962935    -0.801366 H               1 UNK         0.00000
       2 Atom         1.608402     1.140035     4.816488 H               1 UNK         0.00000
       3 C129         0.000000     0.000000     0.000000 C               1 UNK         0.00000
       4 H131        -0.932195    -0.039183    -0.580350 H               1 UNK         0.00000
       5 C150        -0.490567     0.208846     1.474648 C               1 UNK         0.00000
       6 N172         0.661904     1.146440    -0.468033 N               1 UNK         0.00000
       7 H173         0.149995     1.769616     0.215454 H               1 UNK         0.00000
       8 H174         1.503204     0.932648     0.102364 H               1 UNK         0.00000
       9 O191        -0.130346     1.368980     1.877037 O               1 UNK         0.00000
      10 O208        -1.097436    -0.700058     2.066562 O               1 UNK         0.00000
      11 C226         0.667748    -1.364323    -0.161187 C               1 UNK         0.00000
      12 H227        -0.002645    -2.151067     0.204317 H               1 UNK         0.00000
      13 H229         0.792427    -1.560077    -1.232972 H               1 UNK         0.00000
      14 S247         2.308598    -1.714446     0.589040 S               1 UNK         0.00000
      15 S264         2.353593    -0.823334     2.428303 S               1 UNK         0.00000
      16 C282         1.341867    -1.884700     3.638014 C               1 UNK         0.00000
      17 H283         0.616117    -2.474837     3.069897 H               1 UNK         0.00000
      18 H285         2.055827    -2.580129     4.091420 H               1 UNK         0.00000
      19 C304         0.601036    -1.041016     4.727459 C               1 UNK         0.00000
      20 H307        -0.461800    -0.951604     4.464486 H               1 UNK         0.00000
      21 N326         1.189382     0.232814     4.779456 N               1 UNK         0.00000
      22 H327         0.377258     0.678877     4.316010 H               1 UNK         0.00000
      23 H328         1.036971     0.283402     5.827116 H               1 UNK         0.00000
      24 C346         0.611934    -1.738949     6.111285 C               1 UNK         0.00000
      25 O367         0.753031    -0.833515     7.003799 O               1 UNK         0.00000
      26 O384         0.524977    -2.980901     6.168424 O               1 UNK         0.00000
@<TRIPOS>BOND
       1        3        4        1 
       2        3        5        1 
       3        6        7        1 
       4        6        8        1 
       5        3        6        1 
       6        5        9        1 
       7        5       10        2 
       8       11       12        1 
       9       11       13        1 
      10        3       11        1 
      11       11       14        1 
      12       14       15        1 
      13       16       17        1 
      14       16       18        1 
      15       15       16        1 
      16       19       20        1 
      17       16       19        1 
      18       21       22        1 
      19       21       23        1 
      20       19       21        1 
      21       19       24        1 
      22       24       25        2 
      23       24       26        1 
      24        2       21        1 
      25        1        6        1 
@<TRIPOS>SUBSTRUCTURE
       1        UNK    0 RESIDUE          0 ****  ****    0 ROOT
