@<TRIPOS>MOLECULE 
Structure 1
      67       69        1 
SMALL
USER


@<TRIPOS>ATOM
       1 C1          -0.000004     0.000055    -0.500215 C               1 UNL         0.00000
       2 C2          -0.678948     0.000284    -2.659917 C               1 UNL         0.00000
       3 C3           0.678925     0.000271    -2.659923 C               1 UNL         0.00000
       4 H4          -1.391885     0.000360    -3.469541 H               1 UNL         0.00000
       5 H5           1.391857     0.000346    -3.469552 H               1 UNL         0.00000
       6 N6          -1.080406     0.000136    -1.328636 N               1 UNL         0.00000
       7 N7           1.080394     0.000148    -1.328645 N               1 UNL         0.00000
       8 Au8          0.000003    -0.000132     1.515277 Au              1 UNL         0.00000
       9 Cl9          0.000036    -0.000368     3.894871 Cl              1 UNL         0.00000
      10 C10         -2.463379     0.000085    -0.900478 C               1 UNL         0.00000
      11 C11         -3.110177    -1.239231    -0.714626 C               1 UNL         0.00000
      12 C12         -3.110223     1.239359    -0.714486 C               1 UNL         0.00000
      13 C13         -4.453843    -1.208777    -0.314442 C               1 UNL         0.00000
      14 C14         -4.453885     1.208811    -0.314306 C               1 UNL         0.00000
      15 C15         -5.119996    -0.000007    -0.114777 C               1 UNL         0.00000
      16 H16         -4.986416    -2.142736    -0.158483 H               1 UNL         0.00000
      17 H17         -4.986493     2.142732    -0.158238 H               1 UNL         0.00000
      18 H18         -6.161892    -0.000042     0.195009 H               1 UNL         0.00000
      19 C19          2.463376     0.000088    -0.900516 C               1 UNL         0.00000
      20 C20          3.110218     1.239352    -0.714450 C               1 UNL         0.00000
      21 C21          3.110195    -1.239240    -0.714804 C               1 UNL         0.00000
      22 C22          4.453898     1.208780    -0.314327 C               1 UNL         0.00000
      23 C23          4.453874    -1.208809    -0.314664 C               1 UNL         0.00000
      24 C24          5.120025    -0.000049    -0.114922 C               1 UNL         0.00000
      25 H25          4.986509     2.142692    -0.158213 H               1 UNL         0.00000
      26 H26          4.986460    -2.142776    -0.158798 H               1 UNL         0.00000
      27 H27          6.161933    -0.000103     0.194824 H               1 UNL         0.00000
      28 C28         -2.413558     2.579564    -0.932404 C               1 UNL         0.00000
      29 C29         -2.360128     3.408369     0.367023 C               1 UNL         0.00000
      30 C30         -3.073712     3.379884    -2.074038 C               1 UNL         0.00000
      31 H31         -1.379867     2.385062    -1.232566 H               1 UNL         0.00000
      32 H32         -1.855435     2.855012     1.167278 H               1 UNL         0.00000
      33 H33         -1.808500     4.340604     0.195821 H               1 UNL         0.00000
      34 H34         -3.364996     3.673248     0.717176 H               1 UNL         0.00000
      35 H35         -3.084135     2.806295    -3.008168 H               1 UNL         0.00000
      36 H36         -4.108643     3.648349    -1.830263 H               1 UNL         0.00000
      37 H37         -2.519222     4.309356    -2.250879 H               1 UNL         0.00000
      38 C38          2.413475    -2.579382    -0.932933 C               1 UNL         0.00000
      39 C39          2.359884    -3.408296     0.366423 C               1 UNL         0.00000
      40 C40          3.073667    -3.379645    -2.074579 C               1 UNL         0.00000
      41 H41          1.379823    -2.384785    -1.233174 H               1 UNL         0.00000
      42 H42          1.855119    -2.854989     1.166668 H               1 UNL         0.00000
      43 H43          1.808259    -4.340509     0.195094 H               1 UNL         0.00000
      44 H44          3.364718    -3.673210     0.716652 H               1 UNL         0.00000
      45 H45          3.084239    -2.805960    -3.008649 H               1 UNL         0.00000
      46 H46          4.108544    -3.648253    -1.830736 H               1 UNL         0.00000
      47 H47          2.519096    -4.309040    -2.251570 H               1 UNL         0.00000
      48 C48          2.413553     2.579573    -0.932268 C               1 UNL         0.00000
      49 C49          3.073657     3.379947    -2.073893 C               1 UNL         0.00000
      50 C50          2.360194     3.408313     0.367204 C               1 UNL         0.00000
      51 H51          1.379847     2.385093    -1.232393 H               1 UNL         0.00000
      52 H52          3.084040     2.806401    -3.008051 H               1 UNL         0.00000
      53 H53          2.519155     4.309424    -2.250665 H               1 UNL         0.00000
      54 H54          4.108596     3.648406    -1.830150 H               1 UNL         0.00000
      55 H55          1.855525     2.854922     1.167451 H               1 UNL         0.00000
      56 H56          3.365086     3.673150     0.717325 H               1 UNL         0.00000
      57 H57          1.808579     4.340569     0.196078 H               1 UNL         0.00000
      58 C58         -2.413479    -2.579387    -0.932737 C               1 UNL         0.00000
      59 C59         -3.073533    -3.379480    -2.074590 C               1 UNL         0.00000
      60 C60         -2.360154    -3.408458     0.366523 C               1 UNL         0.00000
      61 H61         -1.379764    -2.384816    -1.232769 H               1 UNL         0.00000
      62 H62         -3.083876    -2.805706    -3.008607 H               1 UNL         0.00000
      63 H63         -2.519028    -4.308917    -2.251567 H               1 UNL         0.00000
      64 H64         -4.108485    -3.647990    -1.830953 H               1 UNL         0.00000
      65 H65         -1.855544    -2.855256     1.166939 H               1 UNL         0.00000
      66 H66         -3.365049    -3.673431     0.716531 H               1 UNL         0.00000
      67 H67         -1.808493    -4.340646     0.195180 H               1 UNL         0.00000
@<TRIPOS>BOND
       1        3        5        1 
       2        2        4        1 
       3       40       45        1 
       4       59       62        1 
       5       30       35        1 
       6       49       52        1 
       7        2        3        2 
       8        3        7        1 
       9        2        6        1 
      10       40       47        1 
      11       59       63        1 
      12       30       37        1 
      13       49       53        1 
      14       59       64        1 
      15       58       59        1 
      16       40       46        1 
      17       38       40        1 
      18       30       36        1 
      19       28       30        1 
      20       49       54        1 
      21       48       49        1 
      22        7       19        1 
      23        1        7        1 
      24        6       10        1 
      25        1        6        1 
      26       38       41        1 
      27       58       61        1 
      28       28       31        1 
      29       48       51        1 
      30       21       38        1 
      31       38       39        1 
      32       11       58        1 
      33       58       60        1 
      34       12       28        1 
      35       28       29        1 
      36       20       48        1 
      37       48       50        1 
      38       19       21        2 
      39       19       20        1 
      40       10       11        2 
      41       10       12        1 
      42       21       23        1 
      43       11       13        1 
      44       12       14        2 
      45       20       22        2 
      46        1        8        1 
      47       23       26        1 
      48       23       24        2 
      49       13       16        1 
      50       13       15        2 
      51       22       25        1 
      52       22       24        1 
      53       14       17        1 
      54       14       15        1 
      55       24       27        1 
      56       15       18        1 
      57       39       43        1 
      58       60       67        1 
      59       29       33        1 
      60       50       57        1 
      61       39       44        1 
      62       39       42        1 
      63       60       66        1 
      64       60       65        1 
      65       29       34        1 
      66       29       32        1 
      67       50       56        1 
      68       50       55        1 
      69        8        9        1 
@<TRIPOS>SUBSTRUCTURE
       1        UNL    1 RESIDUE          0 ****  ****    0 ROOT