@<TRIPOS>MOLECULE
Structure 1
      14       13        1 
SMALL
USER


@<TRIPOS>ATOM
       1 Atom         0.000000     0.000000     2.404100 H               1 UNK         0.00000
       2 C129         0.000000     0.000000     0.000000 C               1 UNK         0.00000
       3 H131        -1.045960     0.000000    -0.369800 H               1 UNK         0.00000
       4 C150         0.641114     1.110433    -0.453333 C               1 UNK         0.00000
       5 O171         1.093696     1.894320     0.666747 O               1 UNK         0.00000
       6 O188         1.772559     0.718483    -1.253393 O               1 UNK         0.00000
       7 N206         0.000000     0.000000     1.404100 N               1 UNK         0.00000
       8 H207         0.000000    -0.871000     1.907100 H               1 UNK         0.00000
       9 H208         0.000000     0.871000     1.907100 H               1 UNK         0.00000
      10 C226         0.641114    -1.110433    -0.453333 C               1 UNK         0.00000
      11 H228         0.989769    -1.714315     0.409541 H               1 UNK         0.00000
      12 H229         1.512739    -0.808489    -1.069670 H               1 UNK         0.00000
      13 Se247       -0.213695    -1.850724    -1.208892 Se              1 UNK         0.00000
      14 H248        -0.793164    -2.352562    -0.633727 H               1 UNK         0.00000
@<TRIPOS>BOND
       1        2        3        1 
       2        2        4        1 
       3        4        5        2 
       4        4        6        1 
       5        7        8        1 
       6        7        9        1 
       7        2        7        1 
       8       10       11        1 
       9       10       12        1 
      10        2       10        1 
      11       13       14        1 
      12       10       13        1 
      13        1        7        1 
@<TRIPOS>SUBSTRUCTURE
       1        UNK    0 RESIDUE          0 ****  ****    0 ROOT
